$
$ANSA_VERSION;22.0.0;
$
$
$ file created by  A N S A  Thu Nov  3 13:03:58 2022
$
$ output from :
$
$ E:/TEST/punch_001/Untitled
$
$ Settings :
$
$ Output format : R13
$
$ Output : All
$
$
$
$
*KEYWORD
*NODE
       1-33.939424260498-22.814721604314268.437318106555       0       0
       2-33.9394242604982.58527839568643268.437318106555       0       0
       3-18.939424260495-7.1147216043136268.437318106555       0       0
       4-4.9394242604953-7.1147216043136268.437318106555       0       0
       516.0605757395018-22.814721604314268.437318106555       0       0
       616.06057573950182.58527839568644268.437318106555       0       0
       7-17.939424260495-7.1147216043136268.437318106555       0       0
       8-5.9394242604953-7.1147216043135268.437318106555       0       0
       9-33.439424260498-22.814721604314268.437318106555       0       0
      10-33.939424260498-22.316682388627268.437318106555       0       0
      11-33.939424260498-21.818643172941268.437318106555       0       0
      12-32.939424260498-22.814721604314268.437318106555       0       0
      13-33.939424260498-21.320603957255268.437318106555       0       0
      14-32.439424260498-22.814721604314268.437318106555       0       0
      15-33.939424260498-20.822564741568268.437318106555       0       0
      16-31.939424260498-22.814721604314268.437318106555       0       0
      17-33.939424260498-20.324525525882268.437318106555       0       0
      18-31.439424260498-22.814721604314268.437318106555       0       0
      19-33.939424260498-19.826486310196268.437318106555       0       0
      20-30.939424260498-22.814721604314268.437318106555       0       0
$ ... 5087 like lines cut
*ELEMENT_SHELL
       1       2       1      10     467       9
       2       2      10      11     468     467
       3       2      12       9     467     469
       4       2      11      13     470     468
       5       2     467     468     471     469
       6       2      14      12     469     472
       7       2      13      15     473     470
       8       2     468     470     474     471
       9       2     472     469     471     475
      10       2      16      14     472     476
      11       2      15      17     477     473
      12       2     470     473     478     474
      13       2     471     474     479     475
      14       2     476     472     475     480
      15       2      18      16     476     481
      16       2      17      19     482     477
      17       2     473     477     483     478
      18       2     474     478     484     479
      19       2     480     475     479     485
      20       2     481     476     480     486
$ ... 5014 like lines cut
*PART
panel
         1         1      9999                             0         0          
*SECTION_SHELL_TITLE
panel
         1        16        1.        5.        1.         0         0
        &t        &t        &t        &t                            0.          
*PART
panel
         2         2         2                             0         0          
*SECTION_SHELL_TITLE
panel
         2        16        1.        5.        1.         0         0
        &t        &t        &t        &t                            0.          
*PART
panel
         5         5      9999                             0         0          
*SECTION_SHELL_TITLE
panel
         5        16        1.        5.        1.         0         0
        &t        &t        &t        &t                            0.          
*MAT_RIGID_TITLE
Default MAT20 MAT_RIGID
         2       &OR       &ER       0.3        0.        0.        0.
       1.0        7.        7.
        0.        0.        0.        0.        0.        0.
$ANSA_COLOR;1;SECTION_SHELL;.952941179275513;.874509811401367;.105882354080677;1
$.;
$ANSA_COLOR;2;SECTION_SHELL;.960784316062927;0.74117648601532;.023529412224889;1
$.;
$ANSA_COLOR;5;SECTION_SHELL;.705882370471954;.423529416322708;0.34901961684227;1
$.;
$ANSA_COLOR;1;MAT1 MAT_ELASTIC;0.5686274766922;.407843142747879;0.5686274766922;
$1.;
$ANSA_COLOR;2;MAT20 MAT_RIGID;.576470613479614;.274509817361832;.486274510622025
$;1.;
$ANSA_NAME_COMMENT;1;MAT1 MAT_ELASTIC;Default MAT1 MAT_ELASTIC;;YES;NO;NO;
$ANSA_USER_ATTRIBUTES;SECTION_SHELL;User/cad_material;TEXT;RW;YES;;;
$ANSA_USER_ATTRIBUTES;SECTION_SHELL;User/cad_thickness;TEXT;RW;YES;;;
$ANSA_PART;GROUP;ID;2;NAME;fixture.key;BELONGS_HERE;YES;PID_OFFSET;0;COLOR;203;2
$02;97;0;IS_COLOR_ACTIVE;1;PART_TYPE;Undefined;ATTRIBUTES;2;DM/File Type;ANSA;DM
$/Status;WIP;CONTAINS;ANSAPART;4-5;
$ANSA_PART;PART;ID;1;NAME;Untitled;BELONGS_HERE;YES;STUDY_VERSION;0;PID_OFFSET;0
$;COLOR;146;237;10;0;IS_COLOR_ACTIVE;-1;PART_TYPE;Undefined;ATTRIBUTES;2;DM/File
$ Type;ANSA;DM/Status;WIP;
$ANSA_PART;PART;ID;4;MID;2;NAME;panel@2;BELONGS_HERE;YES;STUDY_VERSION;0;PID_OFF
$SET;0;COLOR;208;134;56;0;IS_COLOR_ACTIVE;1;PART_TYPE;Undefined;ATTRIBUTES;2;DM/
$File Type;ANSA;DM/Status;WIP;CONTAINS;ELEMENT_SHELL;4232-4233,4236-4241,4244-42
$45,4248-4251,4254-4255,4258-4259,4262-4263,4266-4269,4272-4273,4276-4277,4280-4
$281,4284-4285,4288-4289,4292-4293,4296-4297,4300-4301,4304-4305,4307,4309-4310,
$4312,4314-4315,4318-4319,4322-4323,4326-4327,4330-4331,4334-4335,4338-4339,4342
$-4343,4346-4347,4350-4353,4356-4357,4360-4361,4364-4365,4368-4371,4374-4375,437
$8-4383,4386-4387;SECTION_SHELL;2;
$ANSA_PART;PART;ID;5;MID;1;NAME;panel;BELONGS_HERE;YES;STUDY_VERSION;0;PID_OFFSE
$T;0;COLOR;210;100;35;0;IS_COLOR_ACTIVE;1;PART_TYPE;Undefined;ATTRIBUTES;2;DM/Fi
$le Type;ANSA;DM/Status;WIP;CONTAINS;ELEMENT_SHELL;4398-4444,4446,4448-4459,4461
$,4463-4467,4469,4471-4472,4474-4484,4487-4493,4495-4500,4502-4504,4506-4510,451
$2-4514,4516-4517,4519-4527,4529-4534,4536-4573,4575,4577,4579,4581-4585,4587-45
$91,4593,4595-4602,4604-4617,4619-4625,4627-4648,4650-4661,4663-4755,4757-4771,4
$773-4931,4933-4960,4962-5030,5047,5060,5062-5063,5077,5079,5082,5084,5092,5097,
$5107,5113,5128,5134,5136-5138,5151-5153,5155-5157,5160,5164-5167,5169,5175-5178
$,5180,5182,5184-5185;
*END
