*KEYWORD
*MAT_BARLAT_YLD2000_TITLE
Default MAT133 MAT_BARLAT_YLD2000
         1       &OR       &ER      0.28       0.0        0.                    
                                                      -1000.        8.
       &a1       &a2       &a3       &a4       &a5       &a6       &a7       &a8
                                                                                
                                                            
                                                            
*MAT_BARLAT_YLD2000_TITLE
Default MAT133 MAT_BARLAT_YLD2000
      9999       &OR       &ER      0.28       0.0        0.                    
                                                      -1000.        8.
       &a1       &a2       &a3       &a4       &a5       &a6       &a7       &a8
                                                                                
                                                            
                                                            
*INCLUDE
LCSS.key		 
*END
