$
$ANSA_VERSION;19.1.3;
$
$
$ file created by  A N S A  Thu Jul 06 10:15:04 2023
$
$ output from :
$
$ F:/Project/Joining/Simulation/Punch/Temp/5_Caculate_DOE/Punch/punch.key
$
$
$
$
*KEYWORD
*NODE
  999999-11.414469068124-8.9448416168309268.686565777766       0       0
 1000000-11.210826919009-9.6547869210458269.071038958497       0       0
 1000001-11.287068941896-9.3889889184002268.793610737011       0       0
 1000002-11.181383214581-9.7574311272409269.533269958414       0       0
 1000003-10.993153273209-8.7600051914331268.686282173061       0       0
 1000004-10.756511290284-9.5962830118553269.528350704318       0       0
 1000005 -10.61981646959-8.4916316097513268.686636777796       0       0
 1000006-12.464379539737-5.2846016188068268.686565777689       0       0
 1000007 -10.36489668756-9.3682505663702269.528478249367       0       0
 1000008-10.015178463084-9.0783065491241269.533102991396       0       0
 1000009 -12.69746530801-4.4720120815433269.533269958228       0       0
 1000010-10.334660332736-8.1295266660831268.686266835784       0       0
 1000011-9.7180822885423-8.7343410853817269.528693710384       0       0
 1000012-10.130149068614-7.7182822108788268.686616146431       0       0
 1000013-9.4822342401949-8.3474971358401269.528936833144       0       0
 1000014-10.045898174297-7.2652795320726268.686243997555       0       0
 1000015-12.009146867502-5.2180072415578268.686282173803       0       0
 1000016-12.591779577206 -4.840454289286268.793610737707       0       0
 1000017-9.3125974295952-7.9260018598625269.533630830552       0       0
 1000018 -10.05316739783-6.8080881469997268.686551045788       0       0
$ ... 765 like lines cut
*ELEMENT_DISCRETE
 1000777     777 1000783 1000355                      0.       0              0.
*ELEMENT_SHELL
  999999     666 1000037 1000002 1000004 1000038
 1000000     666 1000038 1000039 1000040 1000037
 1000001     666 1000041 1000038 1000004 1000007
 1000002     666 1000042 1000043 1000040 1000039
 1000003     666 1000044 1000039 1000038 1000041
 1000004     666 1000007 1000008 1000045 1000041
 1000005     666 1000046 1000043 1000042 1000047
 1000006     666 1000048 1000042 1000039 1000044
 1000007     666 1000041 1000045 1000049 1000044
 1000008     666 1000047 1000050 1000051 1000046
 1000009     666 1000052 1000045 1000008 1000011
 1000010     666 1000053 1000047 1000042 1000048
 1000011     666 1000044 1000049 1000054 1000048
 1000012     666 1000055 1000056 1000051 1000050
 1000013     666 1000057 1000049 1000045 1000052
 1000014     666 1000058 1000050 1000047 1000053
 1000015     666 1000011 1000013 1000059 1000052
 1000016     666 1000048 1000054 1000060 1000053
 1000017     666 1000061 1000062 1000056 1000055
 1000018     666 1000063 1000054 1000049 1000057
$ ... 758 like lines cut
*PART
rigid
       666       666       666                             0         0          
*SECTION_SHELL_TITLE
rigid
       666         2        1.        5.        1.         0         0
       0.5       0.5       0.5       0.5                            0.          
*PART
SECTION_DISCRETE
       777       777       777                             0                    
*SECTION_DISCRETE_TITLE
SECTION_DISCRETE
       777         0                                        
                    
*MAT_RIGID_TITLE
Default MAT20 MAT_RIGID
       666       &OR       &ER       0.3        0.        0.        0.
       1.0        4.        7.
        0.        0.        0.        0.        0.        0.
*MAT_SPRING_ELASTIC_TITLE
Default MAT_SPRING_ELASTIC Material
       777       0.1
$ANSA_COLOR;666;SECTION_SHELL;.678431391716003;.098039217293262;0.39215686917305
$;1.;
$ANSA_COLOR;777;SECTION_DISCRETE;.729411780834198;.639215707778931;.364705890417
$099;1.;
$ANSA_COLOR;666;MAT20 MAT_RIGID;.796078443527222;.631372570991516;.8549019694328
$31;1.;
$ANSA_COLOR;777;MAT200 MAT_SPRING_ELASTIC;.764705896377563;.811764717102051;0.52
$549022436142;1.;
$ANSA_NAME_COMMENT;1000783;NODE;fix;;NO;NO;NO;
$ANSA_USER_ATTRIBUTES;SECTION_SHELL;User/cad_material;TEXT;RW;YES;;;
$ANSA_USER_ATTRIBUTES;SECTION_SHELL;User/cad_thickness;TEXT;RW;YES;;;
$ANSA_PART;GROUP;ID;2;NAME;punch.key;BELONGS_HERE;YES;PID_OFFSET;0;COLOR;203;202
$;97;0;IS_COLOR_ACTIVE;1;ATTRIBUTES;2;DM/File Type;ANSA;DM/Status;WIP;CONTAINS;A
$NSAPART;4;
$ANSA_PART;PART;ID;1;NAME;Untitled;BELONGS_HERE;YES;STUDY_VERSION;0;PID_OFFSET;0
$;COLOR;143;236;87;0;IS_COLOR_ACTIVE;1;ATTRIBUTES;2;DM/File Type;ANSA;DM/Status;
$WIP;
$ANSA_PART;PART;ID;4;MID;9999;NAME;rigid;BELONGS_HERE;YES;STUDY_VERSION;0;PID_OF
$FSET;0;COLOR;208;134;56;0;IS_COLOR_ACTIVE;1;ATTRIBUTES;2;DM/File Type;ANSA;DM/S
$tatus;WIP;CONTAINS;SECTION_DISCRETE;777;SECTION_SHELL;666;
*END
