$$ HM_OUTPUT_DECK created 14:47:20 05-04-2023 by HyperMesh Version 2019.1.0.20
$$ Ls-dyna Input Deck Generated by HyperMesh Version  : 2019.1.0.20
$$ Generated using HyperMesh-Ls-dyna 971_R10.1 Template Version : 2019.1.0.20
*KEYWORD
*CONTROL_TERMINATION
$$  ENDTIM    ENDCYC     DTMIN    ENDENG    ENDMAS     NOSOL
      0.05         0                           0.0          
*CONTROL_TIMESTEP
$$  DTINIT    TSSFAC      ISDO    TSLIMT     DT2MS      LCTM     ERODE     MSIST
       0.0       0.9         0       0.0-7.000E-08                   0         0
*CONTROL_SHELL
$$  WRPANG     ESORT     IRNXX    ISTUPD    THEORY       BWC     MITER      PROJ
      40.0         1        -2         4         2         2         1         1
$$ ROTASCL    INTGRD    LAMSHT    CSTYP6    THSHEL
       0.0         0         0                   0
$$ PSSTUPD   SIDT4TU     CNTCO    ITSFLG    IRQUAD    W-MODE   STRETCH      ICRQ
                                                                                
*CONTROL_HOURGLASS
$$     IHQ        QH
         4      0.05
*CONTROL_BULK_VISCOSITY
$$      Q1        Q2      TYPE     BTYPE
       0.0       0.0        -1          
*CONTROL_CONTACT
$$  SLSFAC    RWPNAL    ISLCHK    SHLTHK    PENOPT    THKCHG     ORIEN    ENMASS
       0.1       1.0         2         1         1         0         2         0
$$  USRSTR    USRFRC     NSBCS    INTERM     XPENE     SSTHK      ECDT   TIEDPRJ
         0         0         0         1       0.0         1         0         0
$$   SFRIC     DFRIC       EDC    INTVFC        TH     TH_SF    PEN_SF     PTSCL
      0.15      0.15       0.0       0.0       0.0       0.0       0.0          
$$  IGNORE    FRCENG   SKIPRWG    OUTSEG   SPOTSTP   SPOTDEL   SPOTHIN
         2         1         0         0         0         0       0.0
$$    ISYM    NSEROD    RWGAPS    RWGDTH     RWKSF      ICOV    SWRADF    ITHOFF
                                                                                
$$  SHLEDG    PSTIFF    ITHCNT    TDCNOF     FTALL              SHLTRW    IGACTC
         1                                       0                              
*CONTROL_OUTPUT
$$   NPOPT    NEECHO    NREFUP    IACCOP     OPIFS    IPNINT    IKEDIT    IFLUSH
         1         3         0         11.0000E-04         0         0         0
$$   IPRTF    IERODE   TET10S8    MSGMAX    IPCURV      GMDT   IP1DBLT      EOCS
         0         0         0         0         0                              
*CONTROL_ENERGY
$$    HGEN      RWEN    SLNTEN     RYLEN
         2         2         2         2
*CONTROL_ACCURACY
$$     OSU       INN    PIDOSU      IACC
         0         2                    
*CONTROL_DEBUG
$$DATABASE_OPTION -- Control Cards for ASCII output
*DATABASE_DEFORC
$$      DT    BINARY      LCUR     IOOPT
    0.0025         2                    
*DATABASE_NODOUT
$$      DT    BINARY      LCUR     IOOPT      DTHF     BINHF
    0.0025         3                                        
*DATABASE_RCFORC
$$      DT    BINARY      LCUR     IOOPT
5.0000E-05         2                    
*DATABASE_SECFORC
$$      DT    BINARY      LCUR     IOOPT
5.0000E-05         3                    
*DATABASE_BINARY_D3PLOT
$$ DT/CYCL      LCDT      BEAM     NPLTC    PSETID
      0.01                                        
         0
*DATABASE_EXTENT_BINARY
$$   NEIPH     NEIPS    MAXINT    STRFLG    SIGFLG    EPSFLG    RLTFLG    ENGFLG
        97        15         3         0         1         1         1         1
$$  CMPFLG    IEVERP    BEAMIP     DCOMP      SHGE     STSSZ    N3THDT   IALEMAT
         0         1         0         3         0         0         0         0
$$ NINTSLD   PKP_SEN      SCLP     HYDRO     MSSCL     THERM    INTOUT    NODOUT
                                                 1                              
$$    DTDT    RESPLT     NEIPB
         0                    
*NODE
       1 -27.94786460524  6.249999951628           0.694     0.0     0.0
       2 -49.99030978641 8.5343010399708           0.694     0.0     0.0
       3 -48.38873707779 -0.643694178479           0.694     0.0     0.0
       4 -51.39339682562 9.9970897852593           0.694     0.0     0.0
       5 -58.56486627149 6.9872816316805           0.694     0.0     0.0
       6 -49.97872397234 7.0774356257361           0.694     0.0     0.0
       7          -100.0            10.0           0.694     0.0     0.0
       8          -100.0           -10.0           0.694     0.0     0.0
      10  -35.3032407475 4.6578243366168           0.694     0.0     0.0
      11  -48.4175233234 4.0016874942533           0.694     0.0     0.0
      12 -57.12863350804  5.469136495893           0.694     0.0     0.0
      13 -43.77230545149 -5.626438088166           0.694     0.0     0.0
      14  -54.2631110713 8.4934314646112           0.694     0.0     0.0
      15 -42.05486326952 5.7208523967715           0.694     0.0     0.0
      16 -58.56523308857 8.4945738645058           0.694     0.0     0.0
      17 -40.40141473476 5.5184467292139           0.694     0.0     0.0
      18 -60.00004918225  8.498461861623           0.694     0.0     0.0
      19 -40.22797845203 -5.294361736004           0.694     0.0     0.0
      20 -63.05926811555 8.5022108411966           0.694     0.0     0.0
      21 -41.96375632552  -5.49303529429           0.694     0.0     0.0
$ ... 1538 like lines cut
*MAT_RIGID_TITLE
fix                                                                             
       5557.8500E-09  210000.0       0.3       0.0       0.0       0.0          
       1.0         7         7
       0.0       0.0       0.0       0.0       0.0       0.0
*MAT_RIGID_TITLE
move                                                                            
       6667.8500E-09  210000.0       0.3       0.0       0.0       0.0          
       1.0         5         7
       0.0       0.0       0.0       0.0       0.0       0.0
*MAT_PIECEWISE_LINEAR_PLASTICITY_TITLE
Default MAT24 MAT_PIECEWISE_LINEAR_PLASTICITY                                   
       5567.8500E-09  210000.0       0.3                 0.01.0000E+20       0.0
       0.0       0.0      1004                 0.0
$$ HM Entries in Stress-Strain Curve =         8
       0.0       0.0       0.0       0.0       0.0       0.0       0.0       0.0
       0.0       0.0       0.0       0.0       0.0       0.0       0.0       0.0
*PART
$HWCOLOR COMPS       1       3
side                                                                            
         1         1       556                             0         0          
$HWCOLOR COMPS     555       4
fix                                                                             
       555       555       555                             0         0          
$HWCOLOR COMPS     666       5
move                                                                            
       666       666       666                             0         0          
*SECTION_SHELL_TITLE
side                                                                            
         1         20.83333333         0       1.0       0.0         0          
     1.389     1.389     1.389     1.389       0.0                 0.0          
*SECTION_SHELL_TITLE
fix                                                                             
       555         20.83333333         0       1.0       0.0         0          
     1.389     1.389     1.389     1.389       0.0                 0.0          
*SECTION_SHELL_TITLE
move                                                                            
       666         20.83333333         0       1.0       0.0         0          
     1.389     1.389     1.389     1.389       0.0                 0.0          
*MAT_ADD_EROSION_TITLE
Default MAT_ADD_EROSION                                               
       556                                                                      
                                                                                
         1       1.0      1002     -1003       2.0                5.55         0
       0.0                             0                    
*ELEMENT_SHELL
     155       1     360     330    5512    5512
     322       1    5196    1056       2       2
     349       1    5200      64    5199    5199
     373       1    5497     382      23      23
     568       1     827     101     746     746
     676       1     831     830     436     436
     720       1     945     395     737     737
     726       1     960     397     962     962
     753       1     719     954     693     693
    2168       1    5522    5524      25      25
*ELEMENT_SHELL
       2       1      63    5479     353     352
       3       1     150     338       3    5519
       4       1    5190      23      10    5188
       5       1      99      10      67      98
       6       1     333       6       2     329
       7       1       5    1194     300    1191
       8       1      66       6     333    1154
       9       1     371       5    1191      12
      10       1    5198    5522      25    5197
      11       1     368     159     160     370
      12       1    5496      17      15    5485
      13       1       5      16      18    1194
      14       1    5496     382    5497      17
      15     555     178      20    1120     176
      16       1    5497      23    5190    5191
      17     555    1120      20      22    5884
      18       1     379    1196     376     377
      19     555    5884      22      24    5883
      20       1     916     504     580     578
      21     555    5883      24      26    5881
$ ... 1386 like lines cut
$$
$$ Sets Defined In HyperMesh
$$
*SET_PART_LIST_TITLE
Cross Section@_1                                                                
         1                                        MECH      
         1
*BOUNDARY_PRESCRIBED_MOTION_RIGID_ID
$HMNAME LOADCOLS       1BPM_NodeLoadCol_1                                                       
$HWCOLOR LOADCOLS       1       3
         1                                                                      
       666         1         2        11       1.0                           0.0
*DATABASE_HISTORY_NODE
$HMNAME OUTPUTBLOCKS       1outputblock1                                                            
      5255      5438
*DATABASE_CROSS_SECTION_PLANE_ID
$HWCOLOR CROSSSECTIONS       1       3
         1Cross Section                                                         
         1-55.435773   -10.225     0.469-54.435773   -10.225     0.469
-55.435773    10.225     0.469     20.45      0.45         0         0
*DEFINE_CURVE_TITLE
$HWCOLOR CURVES        11       3
$HMCURVE     3    3 move                                                                            
move                                                                  
        11         0       1.0       1.0       0.0       0.0         0         0
                 0.0                 0.0
              0.0501                25.0
*DEFINE_CURVE_TITLE
$HWCOLOR CURVES      1002       4
$HMCURVE     1    1 LCSDG                                                                           
LCSDG                                                                 
      1002         0       1.0       1.0       0.0       0.0         0         0
               -0.33            3.203162
               -0.32            3.035834
               -0.31            2.858738
                -0.3             2.68732
               -0.29            2.525007
               -0.28            2.372924
               -0.27            2.231278
               -0.26            2.099838
               -0.25            1.978157
               -0.24            1.865682
               -0.23            1.761816
               -0.22            1.665956
               -0.21            1.577512
                -0.2            1.495918
               -0.19            1.420643
               -0.18            1.351189
               -0.17            1.287095
               -0.16            1.227934
               -0.15            1.173315
$ ... 82 like lines cut
*DEFINE_CURVE_TITLE
$HWCOLOR CURVES      1003       5
$HMCURVE     2    2 ECRIT                                                                           
ECRIT                                                                 
      1003         0       1.0       1.0       0.0       0.0         0         0
                 0.0                 3.0
                0.01            2.834068
                0.02            2.673242
                0.03            2.517521
                0.04            2.366905
                0.05            2.221396
                0.06            2.080992
                0.07            1.945693
                0.08              1.8155
                0.09            1.690413
                 0.1            1.570432
                0.11            1.455556
                0.12            1.345785
                0.13             1.24112
                0.14            1.141561
                0.15            1.047107
                0.16            0.957759
                0.17            0.873517
                0.18             0.79438
$ ... 48 like lines cut
*DEFINE_CURVE
$HMNAME CURVES      1004low                                                                     
$HWCOLOR CURVES      1004      11
$HMCURVE     1    3 low                                                                             
      1004                 1.0       1.0                              
                 0.0     956.58094158465
   0.001144315691841     964.65997419314
   0.002288631383683     972.62908040991
   0.003432947075524     980.48918035914
   0.004577262767365     988.24119416501
   0.005721578459206      995.8860419517
   0.006865894151048     1003.4246438434
   0.008010209842889     1010.8579199642
    0.00915452553473     1018.1867904385
   0.010298841226571     1025.4121753902
   0.011443156918413     1032.5349949437
   0.012587472610254      1039.556169223
   0.013731788302095     1046.4766183525
   0.014876103993936     1053.2972624562
   0.016020419685778     1060.0190216583
   0.017164735377619      1066.642816083
    0.01830905106946     1073.1695658545
   0.019453366761301      1079.600191097
   0.020597682453143     1085.9356119346
$ ... 101 like lines cut
*END
$$<?xml version="1.0" encoding="utf-8"?>
$$<Altair_XML_Export>
$$    <UDM xmlns:SOAP-ENV="http://schemas.xmlsoap.org/soap/envelope/" xmlns:SOAP-ENC="http://schemas.xmlsoap.org/soap/encoding/" xmlns:xsi="http://www.w3.org/2001/XMLSchema-instance" xmlns:xsd="http://www.w3.org/2001/XMLSchema" xmlns:udmcfg="http://schemas.altair.com/AltairUDMRuntimeConfig" xmlns:udmxml="http://schemas.altair.com/AltairUDM" xmlns:importrules="http://schemas.altair.com/hsm/importru
$$        <udmxml:EntityCollection xsi:type="udmxml:EntityCollectionCType">
$$            <udmxml:Entity xsi:type="udmxml:AssemblyDMCType" displayName="HW_Assembly" contentDefinitionType="UDMAssemblyDM" id="9d717036ce22b7459405bcdd13be155a:0">
$$                <udmxml:Children>
$$                    <udmxml:Child xsi:type="udmxml:ChildCType" refId="cdb15a4e5af099489ec8d2946d43fc90:0" timestamp="1683182607270216" childFlags="0" groupName="boas" contentDefinitionType="UDMBOA"/>
$$                </udmxml:Children>
$$            </udmxml:Entity>
$$            <udmxml:Entity xsi:type="udmxml:BOACType" displayName="HW_BOA" contentDefinitionType="UDMBOA" id="cdb15a4e5af099489ec8d2946d43fc90:0">
$$                <udmxml:Children>
$$                    <udmxml:Child xsi:type="udmxml:ChildCType" refId="43eecd661884fa44a83574326ef00c50:0" timestamp="1683182607270216" childFlags="0" groupName="parts" contentDefinitionType="UDMPartProtoOcc">
$$                        <AdditionalIdList xsi:type="udmxml:AdditionalIdCType" xmlns="http://schemas.altair.com/AltairUDM" keyValue="Model" keyName="displayname" contentDefinitionType="UDMPartProtoOcc"/>
$$                    </udmxml:Child>
$$                </udmxml:Children>
$$            </udmxml:Entity>
$$            <udmxml:Entity xsi:type="udmxml:PartCType" displayName="danlalashen_1.388mm.p" contentDefinitionType="UDMPartProto" id="ad2256909a39d642aa03e4873b17acfe:0">
$$                <udmxml:Attributes>
$$                    <udmxml:Attribute xsi:type="udmxml:AttributeCType" valueutf8="-" type="string" name="studyrevision" displayName="STUDY_REVISION">-</udmxml:Attribute>
$$                    <udmxml:Attribute xsi:type="udmxml:AttributeCType" valueutf8="2" type="string" name="HW_UID">2</udmxml:Attribute>
$$                    <udmxml:Attribute xsi:type="udmxml:AttributeCType" valueutf8="-" type="string" name="PLMXML_PRODUCTREVISION_REVISION">-</udmxml:Attribute>
$$                </udmxml:Attributes>
$$            </udmxml:Entity>
$$            <udmxml:Entity xsi:type="udmxml:PartCType" displayName="danla(2).k.p" contentDefinitionType="UDMPartProto" id="7530920cbe21bc4cac4e71a6af14125a:0">
$$                <udmxml:Attributes>
$$                    <udmxml:Attribute xsi:type="udmxml:AttributeCType" valueutf8="-" type="string" name="studyrevision" displayName="STUDY_REVISION">-</udmxml:Attribute>
$$                    <udmxml:Attribute xsi:type="udmxml:AttributeCType" valueutf8="danla(2).k" type="string" name="HW_UID">danla(2).k</udmxml:Attribute>
$$                    <udmxml:Attribute xsi:type="udmxml:AttributeCType" valueutf8="-" type="string" name="PLMXML_PRODUCTREVISION_REVISION">-</udmxml:Attribute>
$$                </udmxml:Attributes>
$$                <udmxml:Children>
$$                    <udmxml:Child xsi:type="udmxml:ChildCType" refId="b530d6011f6d614688220c406c16e36a:0" timestamp="1683182615009321" childFlags="0" groupName="partprotoinst" contentDefinitionType="UDMPartProtoInst"/>
$$                </udmxml:Children>
$$            </udmxml:Entity>
$$            <udmxml:Entity xsi:type="udmxml:PartCType" displayName="Model.p" contentDefinitionType="UDMPartProto" id="15896bcd8cf4f348a294c65b9741b446:0">
$$                <udmxml:Children>
$$                    <udmxml:Child xsi:type="udmxml:ChildCType" refId="61dcec3322633d46b8338ee10de3d799:0" timestamp="1683182615009321" childFlags="0" groupName="partprotoinst" contentDefinitionType="UDMPartProtoInst"/>
$$                </udmxml:Children>
$$            </udmxml:Entity>
$$            <udmxml:Entity xsi:type="udmxml:PartCType" displayName="danlalashen_1.388mm" contentDefinitionType="UDMPartProtoInst" id="b530d6011f6d614688220c406c16e36a:0">
$$                <udmxml:Children>
$$                    <udmxml:Child xsi:type="udmxml:ChildCType" refId="ad2256909a39d642aa03e4873b17acfe:0" timestamp="1683182615009321" childFlags="0" groupName="partprotos" contentDefinitionType="UDMPartProto"/>
$$                </udmxml:Children>
$$            </udmxml:Entity>
$$            <udmxml:Entity xsi:type="udmxml:PartCType" displayName="danla(2).k" contentDefinitionType="UDMPartProtoInst" id="61dcec3322633d46b8338ee10de3d799:0">
$$                <udmxml:Children>
$$                    <udmxml:Child xsi:type="udmxml:ChildCType" refId="7530920cbe21bc4cac4e71a6af14125a:0" timestamp="1683182615009321" childFlags="0" groupName="partprotos" contentDefinitionType="UDMPartProto"/>
$$                </udmxml:Children>
$$            </udmxml:Entity>
$$            <udmxml:Entity xsi:type="udmxml:PartCType" protoInstanceRefId="b530d6011f6d614688220c406c16e36a:0" prototypeRefId="ad2256909a39d642aa03e4873b17acfe:0" displayName="danlalashen_1.388mm" contentDefinitionType="UDMPartProtoOcc" id="35a231f2899fa447a9abd82e39fad77c:0">
$$                <udmxml:Attributes>
$$                    <udmxml:Attribute xsi:type="udmxml:AttributeCType" valueutf8="ad2256909a39d642aa03e4873b17acfe" type="string" name="protoref" displayName="Prototype reference">ad2256909a39d642aa03e4873b17acfe</udmxml:Attribute>
$$                    <udmxml:Attribute xsi:type="udmxml:AttributeCType" valueutf8="b530d6011f6d614688220c406c16e36a" type="string" name="protoinstanceref" displayName="Prototype Instance reference">b530d6011f6d614688220c406c16e36a</udmxml:Attribute>
$$                    <udmxml:Attribute xsi:type="udmxml:AttributeCType" valueutf8="1,555,666" type="string" name="SelectionExp">1,555,666</udmxml:Attribute>
$$                    <udmxml:Attribute xsi:type="udmxml:AttributeCType" valueutf8="51" type="string" name="UdmxmlString_HmOccurrenceColor">51</udmxml:Attribute>
$$                    <udmxml:Attribute xsi:type="udmxml:AttributeCType" valueutf8="7" type="string" name="UdmxmlString_HmOccurrenceId">7</udmxml:Attribute>
$$                </udmxml:Attributes>
$$            </udmxml:Entity>
$$            <udmxml:Entity xsi:type="udmxml:PartCType" protoInstanceRefId="61dcec3322633d46b8338ee10de3d799:0" prototypeRefId="7530920cbe21bc4cac4e71a6af14125a:0" displayName="danla(2).k" contentDefinitionType="UDMPartProtoOcc" id="39fe136796fa0441bf0305ca71f052eb:0">
$$                <udmxml:Attributes>
$$                    <udmxml:Attribute xsi:type="udmxml:AttributeCType" valueutf8="7530920cbe21bc4cac4e71a6af14125a" type="string" name="protoref" displayName="Prototype reference">7530920cbe21bc4cac4e71a6af14125a</udmxml:Attribute>
$$                    <udmxml:Attribute xsi:type="udmxml:AttributeCType" valueutf8="61dcec3322633d46b8338ee10de3d799" type="string" name="protoinstanceref" displayName="Prototype Instance reference">61dcec3322633d46b8338ee10de3d799</udmxml:Attribute>
$$                    <udmxml:Attribute xsi:type="udmxml:AttributeCType" valueutf8="59" type="string" name="UdmxmlString_HmOccurrenceColor">59</udmxml:Attribute>
$$                    <udmxml:Attribute xsi:type="udmxml:AttributeCType" valueutf8="6" type="string" name="UdmxmlString_HmOccurrenceId">6</udmxml:Attribute>
$$                </udmxml:Attributes>
$$                <udmxml:Children>
$$                    <udmxml:Child xsi:type="udmxml:ChildCType" refId="35a231f2899fa447a9abd82e39fad77c:0" timestamp="1683182615009321" childFlags="0" groupName="partprotooccs" contentDefinitionType="UDMPartProtoOcc">
$$                        <AdditionalIdList xsi:type="udmxml:AdditionalIdCType" xmlns="http://schemas.altair.com/AltairUDM" keyValue="danlalashen_1.388mm" keyName="displayname" contentDefinitionType="UDMPartProtoOcc"/>
$$                    </udmxml:Child>
$$                </udmxml:Children>
$$            </udmxml:Entity>
$$            <udmxml:Entity xsi:type="udmxml:PartCType" prototypeRefId="15896bcd8cf4f348a294c65b9741b446:0" displayName="Model" contentDefinitionType="UDMPartProtoOcc" id="43eecd661884fa44a83574326ef00c50:0">
$$                <udmxml:Attributes>
$$                    <udmxml:Attribute xsi:type="udmxml:AttributeCType" valueutf8="15896bcd8cf4f348a294c65b9741b446" type="string" name="protoref" displayName="Prototype reference">15896bcd8cf4f348a294c65b9741b446</udmxml:Attribute>
$$                    <udmxml:Attribute xsi:type="udmxml:AttributeCType" valueutf8="41" type="string" name="UdmxmlString_HmOccurrenceColor">41</udmxml:Attribute>
$$                    <udmxml:Attribute xsi:type="udmxml:AttributeCType" valueutf8="2" type="string" name="UdmxmlString_HmOccurrenceId">2</udmxml:Attribute>
$$                    <udmxml:Attribute xsi:type="udmxml:AttributeCType" valueutf8="true" type="boolean" name="pseudo root">true</udmxml:Attribute>
$$                </udmxml:Attributes>
$$                <udmxml:Children>
$$                    <udmxml:Child xsi:type="udmxml:ChildCType" refId="39fe136796fa0441bf0305ca71f052eb:0" timestamp="1683182615009321" childFlags="0" groupName="partprotooccs" contentDefinitionType="UDMPartProtoOcc">
$$                        <AdditionalIdList xsi:type="udmxml:AdditionalIdCType" xmlns="http://schemas.altair.com/AltairUDM" keyValue="danla(2).k" keyName="displayname" contentDefinitionType="UDMPartProtoOcc"/>
$$                    </udmxml:Child>
$$                </udmxml:Children>
$$            </udmxml:Entity>
$$        </udmxml:EntityCollection>
$$        <udmxml:RelationCollection xsi:type="udmxml:RelationCollectionCType"/>
$$        <udmxml:RootEntities xsi:type="udmxml:RootEntityCollectionCType">
$$            <udmxml:ItemId>9d717036ce22b7459405bcdd13be155a:0</udmxml:ItemId>
$$        </udmxml:RootEntities>
$$    </UDM>
$$</Altair_XML_Export>
